L6/1726522/Trafos.dss
! ==========================================================
! TRANSFORMADORES DE DISTRIBUICAO — gerados de UNTRMT/EQTRMT
! Secundario 1F/2F: 3 enrolamentos com derivacao central
! Neutro no no 4, aterrado em _ATERRAMENTO.dss
! Kv de BT conforme TEN_LIN_SE da BDGD
! ==========================================================
New Transformer.384086186_384086196 phases=3 windings=2 Xhl=4.890
~ wdg=1 bus=node_441018545.1.2.3 conn=delta Kv=13.8 Kva=1000.0 %R=0.530
~ wdg=2 bus=node_445486859.1.2.3.4 conn=wye Kv=0.2200 Kva=1000.0 %R=0.530
New Transformer.135530815_136172694 phases=3 windings=2 Xhl=4.890
~ wdg=1 bus=node_178403545.1.2.3 conn=delta Kv=13.8 Kva=1000.0 %R=0.530
~ wdg=2 bus=node_467187223.1.2.3.4 conn=wye Kv=0.2200 Kva=1000.0 %R=0.530
New Transformer.384086181_384086184 phases=3 windings=2 Xhl=2.000
~ wdg=1 bus=node_125929644.1.2.3 conn=delta Kv=13.8 Kva=509.0 %R=0.000
~ wdg=2 bus=node_418499337.1.2.3.4 conn=wye Kv=0.2200 Kva=509.0 %R=0.000
New Transformer.324196434_1554698551 phases=3 windings=2 Xhl=4.890
~ wdg=1 bus=node_645288965.1.2.3 conn=delta Kv=13.8 Kva=500.0 %R=0.510
~ wdg=2 bus=node_162078534.1.2.3.4 conn=wye Kv=0.2200 Kva=500.0 %R=0.510
New Transformer.324343522_325181263 phases=3 windings=2 Xhl=4.900
~ wdg=1 bus=node_441016284.1.2.3 conn=delta Kv=13.8 Kva=300.0 %R=0.495
~ wdg=2 bus=node_467152006.1.2.3.4 conn=wye Kv=0.2200 Kva=300.0 %R=0.495
New Transformer.324973161_325260490 phases=3 windings=2 Xhl=4.900
~ wdg=1 bus=node_438401143.1.2.3 conn=delta Kv=13.8 Kva=300.0 %R=0.495
~ wdg=2 bus=node_418557894.1.2.3.4 conn=wye Kv=0.2200 Kva=300.0 %R=0.495
New Transformer.324346375_325304925 phases=3 windings=2 Xhl=4.900
~ wdg=1 bus=node_441015899.1.2.3 conn=delta Kv=13.8 Kva=300.0 %R=0.495
~ wdg=2 bus=node_418531602.1.2.3.4 conn=wye Kv=0.2200 Kva=300.0 %R=0.495
New Transformer.1811509860_1811509861 phases=3 windings=2 Xhl=4.900
~ wdg=1 bus=node_2189725468.1.2.3 conn=delta Kv=13.8 Kva=300.0 %R=0.495
~ wdg=2 bus=node_2189725413.1.2.3.4 conn=wye Kv=0.2200 Kva=300.0 %R=0.495
New Transformer.2655603118_2655603117 phases=3 windings=2 Xhl=4.900
~ wdg=1 bus=node_428706691.1.2.3 conn=delta Kv=13.8 Kva=300.0 %R=0.495
~ wdg=2 bus=node_2820561922.1.2.3.4 conn=wye Kv=0.2200 Kva=300.0 %R=0.495
New Transformer.2689435283_2689435282 phases=3 windings=2 Xhl=4.900
~ wdg=1 bus=node_441016069.1.2.3 conn=delta Kv=13.8 Kva=300.0 %R=0.495
~ wdg=2 bus=node_2865424902.1.2.3.4 conn=wye Kv=0.2200 Kva=300.0 %R=0.495
New Transformer.2565373503_2565373502 phases=3 windings=2 Xhl=4.900
~ wdg=1 bus=node_441016530.1.2.3 conn=delta Kv=13.8 Kva=300.0 %R=0.495
~ wdg=2 bus=node_447441716.1.2.3.4 conn=wye Kv=0.2200 Kva=300.0 %R=0.495
New Transformer.324663499_325259390 phases=3 windings=2 Xhl=4.890
~ wdg=1 bus=node_428706647.1.2.3 conn=delta Kv=13.8 Kva=225.0 %R=0.530
~ wdg=2 bus=node_418529310.1.2.3.4 conn=wye Kv=0.2200 Kva=225.0 %R=0.530
New Transformer.324970089_325182970 phases=3 windings=2 Xhl=4.890
~ wdg=1 bus=node_441016899.1.2.3 conn=delta Kv=13.8 Kva=225.0 %R=0.530
~ wdg=2 bus=node_418501698.1.2.3.4 conn=wye Kv=0.2200 Kva=225.0 %R=0.530
New Transformer.324970389_325258125 phases=3 windings=2 Xhl=4.890
~ wdg=1 bus=node_424068713.1.2.3 conn=delta Kv=13.8 Kva=225.0 %R=0.530
~ wdg=2 bus=node_418560804.1.2.3.4 conn=wye Kv=0.2200 Kva=225.0 %R=0.530
New Transformer.134829837_136174295 phases=3 windings=2 Xhl=4.890
~ wdg=1 bus=node_111497365.1.2.3 conn=delta Kv=13.8 Kva=225.0 %R=0.530
~ wdg=2 bus=node_102277877.1.2.3.4 conn=wye Kv=0.2200 Kva=225.0 %R=0.530
New Transformer.134236988_136102268 phases=3 windings=2 Xhl=4.890
~ wdg=1 bus=node_111496676.1.2.3 conn=delta Kv=13.8 Kva=225.0 %R=0.530
~ wdg=2 bus=node_282781627.1.2.3.4 conn=wye Kv=0.2200 Kva=225.0 %R=0.530
New Transformer.135046928_136079988 phases=3 windings=2 Xhl=4.890
~ wdg=1 bus=node_111497331.1.2.3 conn=delta Kv=13.8 Kva=225.0 %R=0.530
~ wdg=2 bus=node_102276167.1.2.3.4 conn=wye Kv=0.2200 Kva=225.0 %R=0.530
New Transformer.324662128_325182752 phases=3 windings=2 Xhl=4.890
~ wdg=1 bus=node_438401052.1.2.3 conn=delta Kv=13.8 Kva=225.0 %R=0.530
~ wdg=2 bus=node_418557903.1.2.3.4 conn=wye Kv=0.2200 Kva=225.0 %R=0.530
New Transformer.384085822_384085821 phases=3 windings=2 Xhl=4.890
~ wdg=1 bus=node_111497345.1.2.3 conn=delta Kv=13.8 Kva=225.0 %R=0.530
~ wdg=2 bus=node_418531605.1.2.3.4 conn=wye Kv=0.2200 Kva=225.0 %R=0.530
New Transformer.2606900580_2606900579 phases=3 windings=2 Xhl=3.840
~ wdg=1 bus=node_440866535.1.2.3 conn=delta Kv=13.8 Kva=150.0 %R=0.565
~ wdg=2 bus=node_447127466.1.2.3.4 conn=wye Kv=0.2200 Kva=150.0 %R=0.565
New Transformer.2644987164_2644987163 phases=3 windings=2 Xhl=4.960
~ wdg=1 bus=node_2992014951.1.2.3 conn=delta Kv=13.8 Kva=150.0 %R=0.305
~ wdg=2 bus=node_2992014981.1.2.3.4 conn=wye Kv=0.2200 Kva=150.0 %R=0.305
New Transformer.384085858_384085861 phases=3 windings=2 Xhl=3.840
~ wdg=1 bus=node_431156078.1.2.3 conn=delta Kv=13.8 Kva=150.0 %R=0.565
~ wdg=2 bus=node_418559214.1.2.3.4 conn=wye Kv=0.2200 Kva=150.0 %R=0.565
New Transformer.384085870_384085871 phases=3 windings=2 Xhl=3.840
~ wdg=1 bus=node_127316104.1.2.3 conn=delta Kv=13.8 Kva=150.0 %R=0.565
~ wdg=2 bus=node_418591944.1.2.3.4 conn=wye Kv=0.2200 Kva=150.0 %R=0.565
New Transformer.384085890_1285421800 phases=3 windings=2 Xhl=3.840
~ wdg=1 bus=node_424067453.1.2.3 conn=delta Kv=13.8 Kva=150.0 %R=0.565
~ wdg=2 bus=node_1584503204.1.2.3.4 conn=wye Kv=0.2200 Kva=150.0 %R=0.565
New Transformer.324505959_325155712 phases=3 windings=2 Xhl=3.840
~ wdg=1 bus=node_441015620.1.2.3 conn=delta Kv=13.8 Kva=150.0 %R=0.565
~ wdg=2 bus=node_2202585860.1.2.3.4 conn=wye Kv=0.2200 Kva=150.0 %R=0.565
New Transformer.324505735_2259489922 phases=3 windings=2 Xhl=3.840
~ wdg=1 bus=node_440866841.1.2.3 conn=delta Kv=13.8 Kva=150.0 %R=0.565
~ wdg=2 bus=node_418470954.1.2.3.4 conn=wye Kv=0.2200 Kva=150.0 %R=0.565
New Transformer.324505927_325182753 phases=3 windings=2 Xhl=3.840
~ wdg=1 bus=node_441016950.1.2.3 conn=delta Kv=13.8 Kva=150.0 %R=0.565
~ wdg=2 bus=node_418559868.1.2.3.4 conn=wye Kv=0.2200 Kva=150.0 %R=0.565
New Transformer.324505173_325158812 phases=3 windings=2 Xhl=3.840
~ wdg=1 bus=node_431156088.1.2.3 conn=delta Kv=13.8 Kva=150.0 %R=0.565
~ wdg=2 bus=node_420927775.1.2.3.4 conn=wye Kv=0.2200 Kva=150.0 %R=0.565
New Transformer.1388336107_1388336106 phases=3 windings=2 Xhl=3.840
~ wdg=1 bus=node_440867395.1.2.3 conn=delta Kv=13.8 Kva=150.0 %R=0.565
~ wdg=2 bus=node_420911564.1.2.3.4 conn=wye Kv=0.2200 Kva=150.0 %R=0.565
New Transformer.1470188439_1998023964 phases=3 windings=2 Xhl=3.840
~ wdg=1 bus=node_1772610576.1.2.3 conn=delta Kv=13.8 Kva=150.0 %R=0.565
~ wdg=2 bus=node_1772610717.1.2.3.4 conn=wye Kv=0.2200 Kva=150.0 %R=0.565
New Transformer.324503826_325259434 phases=3 windings=2 Xhl=3.840
~ wdg=1 bus=node_440707027.1.2.3 conn=delta Kv=13.8 Kva=150.0 %R=0.565
~ wdg=2 bus=node_418470687.1.2.3.4 conn=wye Kv=0.2200 Kva=150.0 %R=0.565
New Transformer.324503813_443218092 phases=3 windings=2 Xhl=3.840
~ wdg=1 bus=node_424068406.1.2.3 conn=delta Kv=13.8 Kva=150.0 %R=0.565
~ wdg=2 bus=node_418529115.1.2.3.4 conn=wye Kv=0.2200 Kva=150.0 %R=0.565
New Transformer.1356075304_1356075303 phases=3 windings=2 Xhl=3.840
~ wdg=1 bus=node_424069985.1.2.3 conn=delta Kv=13.8 Kva=150.0 %R=0.565
~ wdg=2 bus=node_2889537750.1.2.3.4 conn=wye Kv=0.2200 Kva=150.0 %R=0.565
New Transformer.324503387_325182723 phases=3 windings=2 Xhl=3.840
~ wdg=1 bus=node_440865166.1.2.3 conn=delta Kv=13.8 Kva=150.0 %R=0.565
~ wdg=2 bus=node_418471398.1.2.3.4 conn=wye Kv=0.2200 Kva=150.0 %R=0.565
New Transformer.324502833_2626460280 phases=3 windings=2 Xhl=3.840
~ wdg=1 bus=node_428539758.1.2.3 conn=delta Kv=13.8 Kva=150.0 %R=0.565
~ wdg=2 bus=node_417595714.1.2.3.4 conn=wye Kv=0.2200 Kva=150.0 %R=0.565
New Transformer.951752822_951752823 phases=3 windings=2 Xhl=3.840
~ wdg=1 bus=node_1214185580.1.2.3 conn=delta Kv=13.8 Kva=150.0 %R=0.565
~ wdg=2 bus=node_1214185467.1.2.3.4 conn=wye Kv=0.2200 Kva=150.0 %R=0.565
New Transformer.1315278195_1315278194 phases=3 windings=2 Xhl=3.840
~ wdg=1 bus=node_1700128089.1.2.3 conn=delta Kv=13.8 Kva=150.0 %R=0.565
~ wdg=2 bus=node_1700128077.1.2.3.4 conn=wye Kv=0.2200 Kva=150.0 %R=0.565
New Transformer.1847781240_1847781241 phases=3 windings=2 Xhl=3.840
~ wdg=1 bus=node_2202585883.1.2.3 conn=delta Kv=13.8 Kva=150.0 %R=0.565
~ wdg=2 bus=node_2202585920.1.2.3.4 conn=wye Kv=0.2200 Kva=150.0 %R=0.565
New Transformer.324196894_325183856 phases=3 windings=2 Xhl=3.840
~ wdg=1 bus=node_434994555.1.2.3 conn=delta Kv=13.8 Kva=150.0 %R=0.565
~ wdg=2 bus=node_420035773.1.2.3.4 conn=wye Kv=0.2200 Kva=150.0 %R=0.565
New Transformer.915696015_915696018 phases=3 windings=2 Xhl=3.840
~ wdg=1 bus=node_428706622.1.2.3 conn=delta Kv=13.8 Kva=150.0 %R=0.565
~ wdg=2 bus=node_1176342339.1.2.3.4 conn=wye Kv=0.2200 Kva=150.0 %R=0.565
New Transformer.324347262_325201165 phases=3 windings=2 Xhl=3.840
~ wdg=1 bus=node_441017915.1.2.3 conn=delta Kv=13.8 Kva=150.0 %R=0.565
~ wdg=2 bus=node_419901552.1.2.3.4 conn=wye Kv=0.2200 Kva=150.0 %R=0.565
New Transformer.324196857_325304937 phases=3 windings=2 Xhl=3.840
~ wdg=1 bus=node_440550943.1.2.3 conn=delta Kv=13.8 Kva=150.0 %R=0.565
~ wdg=2 bus=node_418468230.1.2.3.4 conn=wye Kv=0.2200 Kva=150.0 %R=0.565
New Transformer.324346346_325261637 phases=3 windings=2 Xhl=3.840
~ wdg=1 bus=node_440867250.1.2.3 conn=delta Kv=13.8 Kva=150.0 %R=0.565
~ wdg=2 bus=node_420913088.1.2.3.4 conn=wye Kv=0.2200 Kva=150.0 %R=0.565
New Transformer.324345912_325158800 phases=3 windings=2 Xhl=3.840
~ wdg=1 bus=node_441016140.1.2.3 conn=delta Kv=13.8 Kva=150.0 %R=0.565
~ wdg=2 bus=node_468215122.1.2.3.4 conn=wye Kv=0.2200 Kva=150.0 %R=0.565
New Transformer.324345652_325200511 phases=3 windings=2 Xhl=3.840
~ wdg=1 bus=node_440706747.1.2.3 conn=delta Kv=13.8 Kva=150.0 %R=0.565
~ wdg=2 bus=node_419065072.1.2.3.4 conn=wye Kv=0.2200 Kva=150.0 %R=0.565
New Transformer.324345550_325201154 phases=3 windings=2 Xhl=3.840
~ wdg=1 bus=node_437589408.1.2.3 conn=delta Kv=13.8 Kva=150.0 %R=0.565
~ wdg=2 bus=node_467190803.1.2.3.4 conn=wye Kv=0.2200 Kva=150.0 %R=0.565
New Transformer.324664653_325258039 phases=3 windings=2 Xhl=3.840
~ wdg=1 bus=node_428706412.1.2.3 conn=delta Kv=13.8 Kva=150.0 %R=0.565
~ wdg=2 bus=node_418501392.1.2.3.4 conn=wye Kv=0.2200 Kva=150.0 %R=0.565
New Transformer.324664489_325155738 phases=3 windings=2 Xhl=3.840
~ wdg=1 bus=node_424069632.1.2.3 conn=delta Kv=13.8 Kva=150.0 %R=0.565
~ wdg=2 bus=node_417593095.1.2.3.4 conn=wye Kv=0.2200 Kva=150.0 %R=0.565
New Transformer.324345182_911611923 phases=3 windings=2 Xhl=3.840
~ wdg=1 bus=node_438401538.1.2.3 conn=delta Kv=13.8 Kva=150.0 %R=0.565
~ wdg=2 bus=node_418531629.1.2.3.4 conn=wye Kv=0.2200 Kva=150.0 %R=0.565
New Transformer.324344958_325184111 phases=3 windings=2 Xhl=3.840
~ wdg=1 bus=node_440709046.1.2.3 conn=delta Kv=13.8 Kva=150.0 %R=0.565
~ wdg=2 bus=node_418468584.1.2.3.4 conn=wye Kv=0.2200 Kva=150.0 %R=0.565
New Transformer.324662688_325259404 phases=3 windings=2 Xhl=3.840
~ wdg=1 bus=node_441017015.1.2.3 conn=delta Kv=13.8 Kva=150.0 %R=0.565
~ wdg=2 bus=node_418559763.1.2.3.4 conn=wye Kv=0.2200 Kva=150.0 %R=0.565
New Transformer.324344565_325199475 phases=3 windings=2 Xhl=3.840
~ wdg=1 bus=node_437589119.1.2.3 conn=delta Kv=13.8 Kva=150.0 %R=0.565
~ wdg=2 bus=node_420949303.1.2.3.4 conn=wye Kv=0.2200 Kva=150.0 %R=0.565
New Transformer.324661448_944542592 phases=3 windings=2 Xhl=3.840
~ wdg=1 bus=node_440550442.1.2.3 conn=delta Kv=13.8 Kva=150.0 %R=0.565
~ wdg=2 bus=node_1206455183.1.2.3.4 conn=wye Kv=0.2200 Kva=150.0 %R=0.565
New Transformer.324661550_2062343792 phases=3 windings=2 Xhl=3.840
~ wdg=1 bus=node_441016145.1.2.3 conn=delta Kv=13.8 Kva=150.0 %R=0.565
~ wdg=2 bus=node_418531659.1.2.3.4 conn=wye Kv=0.2200 Kva=150.0 %R=0.565
New Transformer.134236994_136128176 phases=3 windings=2 Xhl=3.840
~ wdg=1 bus=node_109210662.1.2.3 conn=delta Kv=13.8 Kva=150.0 %R=0.565
~ wdg=2 bus=node_102277088.1.2.3.4 conn=wye Kv=0.2200 Kva=150.0 %R=0.565
New Transformer.324661877_325158796 phases=3 windings=2 Xhl=3.840
~ wdg=1 bus=node_438401478.1.2.3 conn=delta Kv=13.8 Kva=150.0 %R=0.565
~ wdg=2 bus=node_418648029.1.2.3.4 conn=wye Kv=0.2200 Kva=150.0 %R=0.565
New Transformer.324973330_325158659 phases=3 windings=2 Xhl=3.840
~ wdg=1 bus=node_1279264264.1.2.3 conn=delta Kv=13.8 Kva=150.0 %R=0.565
~ wdg=2 bus=node_1279264280.1.2.3.4 conn=wye Kv=0.2200 Kva=150.0 %R=0.565
New Transformer.324661143_325258114 phases=3 windings=2 Xhl=3.840
~ wdg=1 bus=node_435185162.1.2.3 conn=delta Kv=13.8 Kva=150.0 %R=0.565
~ wdg=2 bus=node_418531671.1.2.3.4 conn=wye Kv=0.2200 Kva=150.0 %R=0.565
New Transformer.324973293_325155711 phases=3 windings=2 Xhl=3.840
~ wdg=1 bus=node_438401427.1.2.3 conn=delta Kv=13.8 Kva=150.0 %R=0.565
~ wdg=2 bus=node_418527897.1.2.3.4 conn=wye Kv=0.2200 Kva=150.0 %R=0.565
New Transformer.324972908_2050698462 phases=3 windings=2 Xhl=3.840
~ wdg=1 bus=node_428706082.1.2.3 conn=delta Kv=13.8 Kva=150.0 %R=0.565
~ wdg=2 bus=node_418529334.1.2.3.4 conn=wye Kv=0.2200 Kva=150.0 %R=0.565
New Transformer.324973595_325158673 phases=3 windings=2 Xhl=3.840
~ wdg=1 bus=node_424069737.1.2.3 conn=delta Kv=13.8 Kva=150.0 %R=0.565
~ wdg=2 bus=node_417592399.1.2.3.4 conn=wye Kv=0.2200 Kva=150.0 %R=0.565
New Transformer.324973592_325201167 phases=3 windings=2 Xhl=3.840
~ wdg=1 bus=node_428708016.1.2.3 conn=delta Kv=13.8 Kva=150.0 %R=0.565
~ wdg=2 bus=node_418589427.1.2.3.4 conn=wye Kv=0.2200 Kva=150.0 %R=0.565
New Transformer.324972389_325155871 phases=3 windings=2 Xhl=3.840
~ wdg=1 bus=node_438404218.1.2.3 conn=delta Kv=13.8 Kva=150.0 %R=0.565
~ wdg=2 bus=node_468176185.1.2.3.4 conn=wye Kv=0.2200 Kva=150.0 %R=0.565
New Transformer.324971340_325155667 phases=3 windings=2 Xhl=3.840
~ wdg=1 bus=node_440551043.1.2.3 conn=delta Kv=13.8 Kva=150.0 %R=0.565
~ wdg=2 bus=node_418471653.1.2.3.4 conn=wye Kv=0.2200 Kva=150.0 %R=0.565
New Transformer.324971831_325258150 phases=3 windings=2 Xhl=3.840
~ wdg=1 bus=node_431155468.1.2.3 conn=delta Kv=13.8 Kva=150.0 %R=0.565
~ wdg=2 bus=node_418469568.1.2.3.4 conn=wye Kv=0.2200 Kva=150.0 %R=0.565
New Transformer.324971985_325201114 phases=3 windings=2 Xhl=3.840
~ wdg=1 bus=node_440866096.1.2.3 conn=delta Kv=13.8 Kva=150.0 %R=0.565
~ wdg=2 bus=node_418470216.1.2.3.4 conn=wye Kv=0.2200 Kva=150.0 %R=0.565
New Transformer.324971120_325155713 phases=3 windings=2 Xhl=3.840
~ wdg=1 bus=node_431156113.1.2.3 conn=delta Kv=13.8 Kva=150.0 %R=0.565
~ wdg=2 bus=node_418560213.1.2.3.4 conn=wye Kv=0.2200 Kva=150.0 %R=0.565
New Transformer.324972637_325181305 phases=3 windings=2 Xhl=3.840
~ wdg=1 bus=node_438403491.1.2.3 conn=delta Kv=13.8 Kva=150.0 %R=0.565
~ wdg=2 bus=node_417595153.1.2.3.4 conn=wye Kv=0.2200 Kva=150.0 %R=0.565
New Transformer.324970716_325258136 phases=3 windings=2 Xhl=3.840
~ wdg=1 bus=node_441019185.1.2.3 conn=delta Kv=13.8 Kva=150.0 %R=0.565
~ wdg=2 bus=node_417593008.1.2.3.4 conn=wye Kv=0.2200 Kva=150.0 %R=0.565
New Transformer.2233236452_2233236451 phases=3 windings=2 Xhl=3.840
~ wdg=1 bus=node_2538780328.1.2.3 conn=delta Kv=13.8 Kva=150.0 %R=0.565
~ wdg=2 bus=node_2538780368.1.2.3.4 conn=wye Kv=0.2200 Kva=150.0 %R=0.565
New Transformer.324344405_325259395 phases=3 windings=2 Xhl=3.840
~ wdg=1 bus=node_435184477.1.2.3 conn=delta Kv=13.8 Kva=150.0 %R=0.565
~ wdg=2 bus=node_418557711.1.2.3.4 conn=wye Kv=0.2200 Kva=150.0 %R=0.565
New Transformer.324344424_325258087 phases=3 windings=2 Xhl=3.840
~ wdg=1 bus=node_438402901.1.2.3 conn=delta Kv=13.8 Kva=150.0 %R=0.565
~ wdg=2 bus=node_418499625.1.2.3.4 conn=wye Kv=0.2200 Kva=150.0 %R=0.565
New Transformer.324343719_2612272336 phases=3 windings=2 Xhl=3.840
~ wdg=1 bus=node_2765284750.1.2.3 conn=delta Kv=13.8 Kva=150.0 %R=0.565
~ wdg=2 bus=node_2765284737.1.2.3.4 conn=wye Kv=0.2200 Kva=150.0 %R=0.565
New Transformer.324343214_325258112 phases=3 windings=2 Xhl=3.840
~ wdg=1 bus=node_441015824.1.2.3 conn=delta Kv=13.8 Kva=150.0 %R=0.565
~ wdg=2 bus=node_418557702.1.2.3.4 conn=wye Kv=0.2200 Kva=150.0 %R=0.565
New Transformer.324343258_1719154430 phases=3 windings=2 Xhl=3.840
~ wdg=1 bus=node_440709942.1.2.3 conn=delta Kv=13.8 Kva=150.0 %R=0.565
~ wdg=2 bus=node_418498773.1.2.3.4 conn=wye Kv=0.2200 Kva=150.0 %R=0.565
New Transformer.986443471_986443470 phases=3 windings=2 Xhl=3.840
~ wdg=1 bus=node_2541313881.1.2.3 conn=delta Kv=13.8 Kva=150.0 %R=0.565
~ wdg=2 bus=node_2541314263.1.2.3.4 conn=wye Kv=0.2200 Kva=150.0 %R=0.565
New Transformer.324827704_1366513990 phases=3 windings=2 Xhl=3.840
~ wdg=1 bus=node_437589414.1.2.3 conn=delta Kv=13.8 Kva=150.0 %R=0.565
~ wdg=2 bus=node_418560768.1.2.3.4 conn=wye Kv=0.2200 Kva=150.0 %R=0.565
New Transformer.324828084_325158681 phases=3 windings=2 Xhl=3.840
~ wdg=1 bus=node_440708202.1.2.3 conn=delta Kv=13.8 Kva=150.0 %R=0.565
~ wdg=2 bus=node_417595699.1.2.3.4 conn=wye Kv=0.2200 Kva=150.0 %R=0.565
New Transformer.324827477_325260580 phases=3 windings=2 Xhl=3.840
~ wdg=1 bus=node_438402881.1.2.3 conn=delta Kv=13.8 Kva=150.0 %R=0.565
~ wdg=2 bus=node_418470252.1.2.3.4 conn=wye Kv=0.2200 Kva=150.0 %R=0.565
New Transformer.324826710_325155194 phases=3 windings=2 Xhl=3.840
~ wdg=1 bus=node_424067344.1.2.3 conn=delta Kv=13.8 Kva=150.0 %R=0.565
~ wdg=2 bus=node_469709983.1.2.3.4 conn=wye Kv=0.2200 Kva=150.0 %R=0.565
New Transformer.324826764_1125487943 phases=3 windings=2 Xhl=3.840
~ wdg=1 bus=node_424068664.1.2.3 conn=delta Kv=13.8 Kva=150.0 %R=0.565
~ wdg=2 bus=node_418559778.1.2.3.4 conn=wye Kv=0.2200 Kva=150.0 %R=0.565
New Transformer.324826366_325261563 phases=3 windings=2 Xhl=3.840
~ wdg=1 bus=node_424068117.1.2.3 conn=delta Kv=13.8 Kva=150.0 %R=0.565
~ wdg=2 bus=node_513380841.1.2.3.4 conn=wye Kv=0.2200 Kva=150.0 %R=0.565
New Transformer.324826256_325182748 phases=3 windings=2 Xhl=3.840
~ wdg=1 bus=node_438401103.1.2.3 conn=delta Kv=13.8 Kva=150.0 %R=0.565
~ wdg=2 bus=node_418558797.1.2.3.4 conn=wye Kv=0.2200 Kva=150.0 %R=0.565
New Transformer.324826490_325184106 phases=3 windings=2 Xhl=3.840
~ wdg=1 bus=node_424067748.1.2.3 conn=delta Kv=13.8 Kva=150.0 %R=0.565
~ wdg=2 bus=node_417595102.1.2.3.4 conn=wye Kv=0.2200 Kva=150.0 %R=0.565
New Transformer.324826120_325155708 phases=3 windings=2 Xhl=3.840
~ wdg=1 bus=node_424068301.1.2.3 conn=delta Kv=13.8 Kva=150.0 %R=0.565
~ wdg=2 bus=node_418500330.1.2.3.4 conn=wye Kv=0.2200 Kva=150.0 %R=0.565
New Transformer.324826050_325223828 phases=3 windings=2 Xhl=3.840
~ wdg=1 bus=node_440868105.1.2.3 conn=delta Kv=13.8 Kva=150.0 %R=0.565
~ wdg=2 bus=node_418499058.1.2.3.4 conn=wye Kv=0.2200 Kva=150.0 %R=0.565
New Transformer.324825793_1341110819 phases=3 windings=2 Xhl=3.840
~ wdg=1 bus=node_428705907.1.2.3 conn=delta Kv=13.8 Kva=150.0 %R=0.565
~ wdg=2 bus=node_418498410.1.2.3.4 conn=wye Kv=0.2200 Kva=150.0 %R=0.565
New Transformer.324825497_1150749060 phases=3 windings=2 Xhl=3.840
~ wdg=1 bus=node_428706067.1.2.3 conn=delta Kv=13.8 Kva=150.0 %R=0.565
~ wdg=2 bus=node_418498401.1.2.3.4 conn=wye Kv=0.2200 Kva=150.0 %R=0.565
New Transformer.324825078_325181071 phases=3 windings=2 Xhl=3.840
~ wdg=1 bus=node_440865941.1.2.3 conn=delta Kv=13.8 Kva=150.0 %R=0.565
~ wdg=2 bus=node_513314285.1.2.3.4 conn=wye Kv=0.2200 Kva=150.0 %R=0.565
New Transformer.324825632_325155722 phases=3 windings=2 Xhl=3.840
~ wdg=1 bus=node_428706746.1.2.3 conn=delta Kv=13.8 Kva=150.0 %R=0.565
~ wdg=2 bus=node_418559748.1.2.3.4 conn=wye Kv=0.2200 Kva=150.0 %R=0.565
New Transformer.324824173_325184062 phases=3 windings=2 Xhl=3.840
~ wdg=1 bus=node_438401863.1.2.3 conn=delta Kv=13.8 Kva=150.0 %R=0.565
~ wdg=2 bus=node_418498887.1.2.3.4 conn=wye Kv=0.2200 Kva=150.0 %R=0.565
New Transformer.324824236_325259564 phases=3 windings=2 Xhl=3.840
~ wdg=1 bus=node_424068803.1.2.3 conn=delta Kv=13.8 Kva=150.0 %R=0.565
~ wdg=2 bus=node_418497765.1.2.3.4 conn=wye Kv=0.2200 Kva=150.0 %R=0.565
New Transformer.324824623_325155727 phases=3 windings=2 Xhl=3.840
~ wdg=1 bus=node_2531832580.1.2.3 conn=delta Kv=13.8 Kva=112.5 %R=0.565
~ wdg=2 bus=node_2531832585.1.2.3.4 conn=wye Kv=0.2200 Kva=112.5 %R=0.565
New Transformer.324824732_325258122 phases=3 windings=2 Xhl=3.840
~ wdg=1 bus=node_438401297.1.2.3 conn=delta Kv=13.8 Kva=112.5 %R=0.565
~ wdg=2 bus=node_418560300.1.2.3.4 conn=wye Kv=0.2200 Kva=112.5 %R=0.565
New Transformer.324824032_325201079 phases=3 windings=2 Xhl=3.840
~ wdg=1 bus=node_437589394.1.2.3 conn=delta Kv=13.8 Kva=112.5 %R=0.565
~ wdg=2 bus=node_418531683.1.2.3.4 conn=wye Kv=0.2200 Kva=112.5 %R=0.565
New Transformer.324824950_325155665 phases=3 windings=2 Xhl=3.840
~ wdg=1 bus=node_428540162.1.2.3 conn=delta Kv=13.8 Kva=112.5 %R=0.565
~ wdg=2 bus=node_418471347.1.2.3.4 conn=wye Kv=0.2200 Kva=112.5 %R=0.565
New Transformer.324825129_325259379 phases=3 windings=2 Xhl=3.840
~ wdg=1 bus=node_440867304.1.2.3 conn=delta Kv=13.8 Kva=112.5 %R=0.565
~ wdg=2 bus=node_418498257.1.2.3.4 conn=wye Kv=0.2200 Kva=112.5 %R=0.565
New Transformer.324825073_325200825 phases=3 windings=2 Xhl=3.840
~ wdg=1 bus=node_440710322.1.2.3 conn=delta Kv=13.8 Kva=112.5 %R=0.565
~ wdg=2 bus=node_420947557.1.2.3.4 conn=wye Kv=0.2200 Kva=112.5 %R=0.565
New Transformer.324825549_325258134 phases=3 windings=2 Xhl=3.840
~ wdg=1 bus=node_431323799.1.2.3 conn=delta Kv=13.8 Kva=112.5 %R=0.565
~ wdg=2 bus=node_417594442.1.2.3.4 conn=wye Kv=0.2200 Kva=112.5 %R=0.565
New Transformer.324825723_325158657 phases=3 windings=2 Xhl=3.840
~ wdg=1 bus=node_428706372.1.2.3 conn=delta Kv=13.8 Kva=112.5 %R=0.565
~ wdg=2 bus=node_418531371.1.2.3.4 conn=wye Kv=0.2200 Kva=112.5 %R=0.565
New Transformer.324825336_325201180 phases=3 windings=2 Xhl=3.840
~ wdg=1 bus=node_434994114.1.2.3 conn=delta Kv=13.8 Kva=112.5 %R=0.565
~ wdg=2 bus=node_417595678.1.2.3.4 conn=wye Kv=0.2200 Kva=112.5 %R=0.565
New Transformer.324825339_325259382 phases=3 windings=2 Xhl=3.840
~ wdg=1 bus=node_438401943.1.2.3 conn=delta Kv=13.8 Kva=112.5 %R=0.565
~ wdg=2 bus=node_418498434.1.2.3.4 conn=wye Kv=0.2200 Kva=112.5 %R=0.565
New Transformer.324826904_325155704 phases=3 windings=2 Xhl=3.840
~ wdg=1 bus=node_440868994.1.2.3 conn=delta Kv=13.8 Kva=112.5 %R=0.565
~ wdg=2 bus=node_418527669.1.2.3.4 conn=wye Kv=0.2200 Kva=112.5 %R=0.565
New Transformer.324826033_325201126 phases=3 windings=2 Xhl=3.840
~ wdg=1 bus=node_424067967.1.2.3 conn=delta Kv=13.8 Kva=112.5 %R=0.565
~ wdg=2 bus=node_418499022.1.2.3.4 conn=wye Kv=0.2200 Kva=112.5 %R=0.565
New Transformer.324826786_325158655 phases=3 windings=2 Xhl=3.840
~ wdg=1 bus=node_441016230.1.2.3 conn=delta Kv=13.8 Kva=112.5 %R=0.565
~ wdg=2 bus=node_418531362.1.2.3.4 conn=wye Kv=0.2200 Kva=112.5 %R=0.565
New Transformer.324826540_325259394 phases=3 windings=2 Xhl=3.840
~ wdg=1 bus=node_441016215.1.2.3 conn=delta Kv=13.8 Kva=112.5 %R=0.565
~ wdg=2 bus=node_418558779.1.2.3.4 conn=wye Kv=0.2200 Kva=112.5 %R=0.565
New Transformer.324827705_325155720 phases=3 windings=2 Xhl=3.840
~ wdg=1 bus=node_441016674.1.2.3 conn=delta Kv=13.8 Kva=112.5 %R=0.565
~ wdg=2 bus=node_467189398.1.2.3.4 conn=wye Kv=0.2200 Kva=112.5 %R=0.565
New Transformer.324827961_325184045 phases=3 windings=2 Xhl=3.840
~ wdg=1 bus=node_440706542.1.2.3 conn=delta Kv=13.8 Kva=112.5 %R=0.565
~ wdg=2 bus=node_418469271.1.2.3.4 conn=wye Kv=0.2200 Kva=112.5 %R=0.565
New Transformer.324343020_325258096 phases=3 windings=2 Xhl=3.840
~ wdg=1 bus=node_440868829.1.2.3 conn=delta Kv=13.8 Kva=112.5 %R=0.565
~ wdg=2 bus=node_418501710.1.2.3.4 conn=wye Kv=0.2200 Kva=112.5 %R=0.565
New Transformer.324343346_325259399 phases=3 windings=2 Xhl=3.840
~ wdg=1 bus=node_437589464.1.2.3 conn=delta Kv=13.8 Kva=112.5 %R=0.565
~ wdg=2 bus=node_418559835.1.2.3.4 conn=wye Kv=0.2200 Kva=112.5 %R=0.565
New Transformer.324343376_325184071 phases=3 windings=2 Xhl=3.840
~ wdg=1 bus=node_440868889.1.2.3 conn=delta Kv=13.8 Kva=112.5 %R=0.565
~ wdg=2 bus=node_418527687.1.2.3.4 conn=wye Kv=0.2200 Kva=112.5 %R=0.565
New Transformer.324343679_325201152 phases=3 windings=2 Xhl=3.840
~ wdg=1 bus=node_437589914.1.2.3 conn=delta Kv=13.8 Kva=112.5 %R=0.565
~ wdg=2 bus=node_418531701.1.2.3.4 conn=wye Kv=0.2200 Kva=112.5 %R=0.565
New Transformer.324344200_325158634 phases=3 windings=2 Xhl=3.840
~ wdg=1 bus=node_424068033.1.2.3 conn=delta Kv=13.8 Kva=112.5 %R=0.565
~ wdg=2 bus=node_418498272.1.2.3.4 conn=wye Kv=0.2200 Kva=112.5 %R=0.565
New Transformer.324343958_325259403 phases=3 windings=2 Xhl=3.840
~ wdg=1 bus=node_438401058.1.2.3 conn=delta Kv=13.8 Kva=112.5 %R=0.565
~ wdg=2 bus=node_418559853.1.2.3.4 conn=wye Kv=0.2200 Kva=112.5 %R=0.565
New Transformer.324344177_325182747 phases=3 windings=2 Xhl=3.840
~ wdg=1 bus=node_430947115.1.2.3 conn=delta Kv=13.8 Kva=112.5 %R=0.565
~ wdg=2 bus=node_420881261.1.2.3.4 conn=wye Kv=0.2200 Kva=112.5 %R=0.565
New Transformer.324970755_325223840 phases=3 windings=2 Xhl=3.840
~ wdg=1 bus=node_437589344.1.2.3 conn=delta Kv=13.8 Kva=112.5 %R=0.565
~ wdg=2 bus=node_418557720.1.2.3.4 conn=wye Kv=0.2200 Kva=112.5 %R=0.565
New Transformer.324970590_325182758 phases=3 windings=2 Xhl=3.840
~ wdg=1 bus=node_424068978.1.2.3 conn=delta Kv=13.8 Kva=112.5 %R=0.565
~ wdg=2 bus=node_418561536.1.2.3.4 conn=wye Kv=0.2200 Kva=112.5 %R=0.565
New Transformer.324972414_325155731 phases=3 windings=2 Xhl=3.840
~ wdg=1 bus=node_435185198.1.2.3 conn=delta Kv=13.8 Kva=112.5 %R=0.565
~ wdg=2 bus=node_418588614.1.2.3.4 conn=wye Kv=0.2200 Kva=112.5 %R=0.565
New Transformer.324971221_325201139 phases=3 windings=2 Xhl=3.840
~ wdg=1 bus=node_441016034.1.2.3 conn=delta Kv=13.8 Kva=112.5 %R=0.565
~ wdg=2 bus=node_418500153.1.2.3.4 conn=wye Kv=0.2200 Kva=112.5 %R=0.565
New Transformer.324971648_325155714 phases=3 windings=2 Xhl=3.840
~ wdg=1 bus=node_441015955.1.2.3 conn=delta Kv=13.8 Kva=112.5 %R=0.565
~ wdg=2 bus=node_418560228.1.2.3.4 conn=wye Kv=0.2200 Kva=112.5 %R=0.565
New Transformer.324971787_325155948 phases=3 windings=2 Xhl=3.840
~ wdg=1 bus=node_437589909.1.2.3 conn=delta Kv=13.8 Kva=112.5 %R=0.565
~ wdg=2 bus=node_469283679.1.2.3.4 conn=wye Kv=0.2200 Kva=112.5 %R=0.565
New Transformer.324972959_325223843 phases=3 windings=2 Xhl=3.840
~ wdg=1 bus=node_441016759.1.2.3 conn=delta Kv=13.8 Kva=112.5 %R=0.565
~ wdg=2 bus=node_418560780.1.2.3.4 conn=wye Kv=0.2200 Kva=112.5 %R=0.565
New Transformer.324661168_325158638 phases=3 windings=2 Xhl=3.840
~ wdg=1 bus=node_434995039.1.2.3 conn=delta Kv=13.8 Kva=112.5 %R=0.565
~ wdg=2 bus=node_2764858839.1.2.3.4 conn=wye Kv=0.2200 Kva=112.5 %R=0.565
New Transformer.324662177_325156805 phases=3 windings=2 Xhl=3.840
~ wdg=1 bus=node_438402742.1.2.3 conn=delta Kv=13.8 Kva=112.5 %R=0.565
~ wdg=2 bus=node_419899008.1.2.3.4 conn=wye Kv=0.2200 Kva=112.5 %R=0.565
New Transformer.324970041_325223786 phases=3 windings=2 Xhl=3.840
~ wdg=1 bus=node_428706721.1.2.3 conn=delta Kv=13.8 Kva=112.5 %R=0.565
~ wdg=2 bus=node_418469385.1.2.3.4 conn=wye Kv=0.2200 Kva=112.5 %R=0.565
New Transformer.324970107_325158649 phases=3 windings=2 Xhl=3.840
~ wdg=1 bus=node_441015729.1.2.3 conn=delta Kv=13.8 Kva=112.5 %R=0.565
~ wdg=2 bus=node_418530564.1.2.3.4 conn=wye Kv=0.2200 Kva=112.5 %R=0.565
New Transformer.324661925_325258117 phases=3 windings=2 Xhl=3.840
~ wdg=1 bus=node_441016644.1.2.3 conn=delta Kv=13.8 Kva=112.5 %R=0.565
~ wdg=2 bus=node_418557897.1.2.3.4 conn=wye Kv=0.2200 Kva=112.5 %R=0.565
New Transformer.324661518_325201070 phases=3 windings=2 Xhl=3.840
~ wdg=1 bus=node_424069646.1.2.3 conn=delta Kv=13.8 Kva=112.5 %R=0.565
~ wdg=2 bus=node_418499901.1.2.3.4 conn=wye Kv=0.2200 Kva=112.5 %R=0.565
New Transformer.135285601_136124615 phases=3 windings=2 Xhl=3.840
~ wdg=1 bus=node_111497191.1.2.3 conn=delta Kv=13.8 Kva=112.5 %R=0.565
~ wdg=2 bus=node_102277763.1.2.3.4 conn=wye Kv=0.2200 Kva=112.5 %R=0.565
New Transformer.324970178_325223810 phases=3 windings=2 Xhl=3.840
~ wdg=1 bus=node_424067219.1.2.3 conn=delta Kv=13.8 Kva=112.5 %R=0.565
~ wdg=2 bus=node_418470219.1.2.3.4 conn=wye Kv=0.2200 Kva=112.5 %R=0.565
New Transformer.324662665_325183848 phases=3 windings=2 Xhl=3.840
~ wdg=1 bus=node_438403835.1.2.3 conn=delta Kv=13.8 Kva=112.5 %R=0.565
~ wdg=2 bus=node_470482194.1.2.3.4 conn=wye Kv=0.2200 Kva=112.5 %R=0.565
New Transformer.324662403_325155716 phases=3 windings=2 Xhl=3.840
~ wdg=1 bus=node_441015934.1.2.3 conn=delta Kv=13.8 Kva=112.5 %R=0.565
~ wdg=2 bus=node_513072010.1.2.3.4 conn=wye Kv=0.2200 Kva=112.5 %R=0.565
New Transformer.324662406_325182731 phases=3 windings=2 Xhl=3.840
~ wdg=1 bus=node_440868519.1.2.3 conn=delta Kv=13.8 Kva=112.5 %R=0.565
~ wdg=2 bus=node_1590295813.1.2.3.4 conn=wye Kv=0.2200 Kva=112.5 %R=0.565
New Transformer.324662416_325155490 phases=3 windings=2 Xhl=3.840
~ wdg=1 bus=node_437386631.1.2.3 conn=delta Kv=13.8 Kva=112.5 %R=0.565
~ wdg=2 bus=node_418497609.1.2.3.4 conn=wye Kv=0.2200 Kva=112.5 %R=0.565
New Transformer.324663366_325223820 phases=3 windings=2 Xhl=3.840
~ wdg=1 bus=node_440709977.1.2.3 conn=delta Kv=13.8 Kva=112.5 %R=0.565
~ wdg=2 bus=node_418498554.1.2.3.4 conn=wye Kv=0.2200 Kva=112.5 %R=0.565
New Transformer.324970337_325259415 phases=3 windings=2 Xhl=3.840
~ wdg=1 bus=node_441018435.1.2.3 conn=delta Kv=13.8 Kva=112.5 %R=0.565
~ wdg=2 bus=node_417592294.1.2.3.4 conn=wye Kv=0.2200 Kva=112.5 %R=0.565
New Transformer.324970232_325259402 phases=3 windings=2 Xhl=3.840
~ wdg=1 bus=node_441017010.1.2.3 conn=delta Kv=13.8 Kva=112.5 %R=0.565
~ wdg=2 bus=node_418561446.1.2.3.4 conn=wye Kv=0.2200 Kva=112.5 %R=0.565
New Transformer.324344863_325158642 phases=3 windings=2 Xhl=3.840
~ wdg=1 bus=node_440868300.1.2.3 conn=delta Kv=13.8 Kva=112.5 %R=0.565
~ wdg=2 bus=node_418500051.1.2.3.4 conn=wye Kv=0.2200 Kva=112.5 %R=0.565
New Transformer.324664521_325259440 phases=3 windings=2 Xhl=3.840
~ wdg=1 bus=node_428706321.1.2.3 conn=delta Kv=13.8 Kva=112.5 %R=0.565
~ wdg=2 bus=node_418529526.1.2.3.4 conn=wye Kv=0.2200 Kva=112.5 %R=0.565
New Transformer.324664708_325158598 phases=3 windings=2 Xhl=3.840
~ wdg=1 bus=node_440706151.1.2.3 conn=delta Kv=13.8 Kva=112.5 %R=0.565
~ wdg=2 bus=node_418469808.1.2.3.4 conn=wye Kv=0.2200 Kva=112.5 %R=0.565
New Transformer.324345451_325201136 phases=3 windings=2 Xhl=3.840
~ wdg=1 bus=node_438402042.1.2.3 conn=delta Kv=13.8 Kva=112.5 %R=0.565
~ wdg=2 bus=node_418528134.1.2.3.4 conn=wye Kv=0.2200 Kva=112.5 %R=0.565
New Transformer.324345649_325182781 phases=3 windings=2 Xhl=3.840
~ wdg=1 bus=node_440707722.1.2.3 conn=delta Kv=13.8 Kva=112.5 %R=0.565
~ wdg=2 bus=node_418470477.1.2.3.4 conn=wye Kv=0.2200 Kva=112.5 %R=0.565
New Transformer.324345841_325158630 phases=3 windings=2 Xhl=3.840
~ wdg=1 bus=node_440710267.1.2.3 conn=delta Kv=13.8 Kva=112.5 %R=0.565
~ wdg=2 bus=node_418498026.1.2.3.4 conn=wye Kv=0.2200 Kva=112.5 %R=0.565
New Transformer.324345505_325259408 phases=3 windings=2 Xhl=3.840
~ wdg=1 bus=node_424069238.1.2.3 conn=delta Kv=13.8 Kva=112.5 %R=0.565
~ wdg=2 bus=node_418588440.1.2.3.4 conn=wye Kv=0.2200 Kva=112.5 %R=0.565
New Transformer.324345630_325155958 phases=3 windings=2 Xhl=3.840
~ wdg=1 bus=node_438401548.1.2.3 conn=delta Kv=13.8 Kva=112.5 %R=0.565
~ wdg=2 bus=node_468243601.1.2.3.4 conn=wye Kv=0.2200 Kva=112.5 %R=0.565
New Transformer.324196278_325201153 phases=3 windings=2 Xhl=3.840
~ wdg=1 bus=node_111496675.1.2.3 conn=delta Kv=13.8 Kva=112.5 %R=0.565
~ wdg=2 bus=node_102277997.1.2.3.4 conn=wye Kv=0.2200 Kva=112.5 %R=0.565
New Transformer.324346100_325201166 phases=3 windings=2 Xhl=3.840
~ wdg=1 bus=node_435185473.1.2.3 conn=delta Kv=13.8 Kva=112.5 %R=0.565
~ wdg=2 bus=node_418589361.1.2.3.4 conn=wye Kv=0.2200 Kva=112.5 %R=0.565
New Transformer.324196789_325158639 phases=3 windings=2 Xhl=3.840
~ wdg=1 bus=node_1472906434.1.2.3 conn=delta Kv=13.8 Kva=112.5 %R=0.565
~ wdg=2 bus=node_447202209.1.2.3.4 conn=wye Kv=0.2200 Kva=112.5 %R=0.565
New Transformer.324196751_325258092 phases=3 windings=2 Xhl=3.840
~ wdg=1 bus=node_428705637.1.2.3 conn=delta Kv=13.8 Kva=112.5 %R=0.565
~ wdg=2 bus=node_418499046.1.2.3.4 conn=wye Kv=0.2200 Kva=112.5 %R=0.565
New Transformer.324196217_325223852 phases=3 windings=2 Xhl=3.840
~ wdg=1 bus=node_424069357.1.2.3 conn=delta Kv=13.8 Kva=112.5 %R=0.565
~ wdg=2 bus=node_418589589.1.2.3.4 conn=wye Kv=0.2200 Kva=112.5 %R=0.565
New Transformer.324196620_325182772 phases=3 windings=2 Xhl=3.840
~ wdg=1 bus=node_440550258.1.2.3 conn=delta Kv=13.8 Kva=112.5 %R=0.565
~ wdg=2 bus=node_417595603.1.2.3.4 conn=wye Kv=0.2200 Kva=112.5 %R=0.565
New Transformer.324502280_325155742 phases=3 windings=2 Xhl=3.840
~ wdg=1 bus=node_441183335.1.2.3 conn=delta Kv=13.8 Kva=112.5 %R=0.565
~ wdg=2 bus=node_417592879.1.2.3.4 conn=wye Kv=0.2200 Kva=112.5 %R=0.565
New Transformer.324502468_325223839 phases=3 windings=2 Xhl=3.840
~ wdg=1 bus=node_441016639.1.2.3 conn=delta Kv=13.8 Kva=112.5 %R=0.565
~ wdg=2 bus=node_418531635.1.2.3.4 conn=wye Kv=0.2200 Kva=112.5 %R=0.565
New Transformer.324503301_325258051 phases=3 windings=2 Xhl=3.840
~ wdg=1 bus=node_428540742.1.2.3 conn=delta Kv=13.8 Kva=112.5 %R=0.565
~ wdg=2 bus=node_418529985.1.2.3.4 conn=wye Kv=0.2200 Kva=112.5 %R=0.565
New Transformer.324504636_325259389 phases=3 windings=2 Xhl=3.840
~ wdg=1 bus=node_440869063.1.2.3 conn=delta Kv=13.8 Kva=112.5 %R=0.565
~ wdg=2 bus=node_418527726.1.2.3.4 conn=wye Kv=0.2200 Kva=112.5 %R=0.565
New Transformer.324504653_325155687 phases=3 windings=2 Xhl=3.840
~ wdg=1 bus=node_431155298.1.2.3 conn=delta Kv=13.8 Kva=112.5 %R=0.565
~ wdg=2 bus=node_417595168.1.2.3.4 conn=wye Kv=0.2200 Kva=112.5 %R=0.565
New Transformer.324504292_325158663 phases=3 windings=2 Xhl=3.840
~ wdg=1 bus=node_437589924.1.2.3 conn=delta Kv=13.8 Kva=112.5 %R=0.565
~ wdg=2 bus=node_418589220.1.2.3.4 conn=wye Kv=0.2200 Kva=112.5 %R=0.565
New Transformer.324505217_325158637 phases=3 windings=2 Xhl=3.840
~ wdg=1 bus=node_440868354.1.2.3 conn=delta Kv=13.8 Kva=112.5 %R=0.565
~ wdg=2 bus=node_418499679.1.2.3.4 conn=wye Kv=0.2200 Kva=112.5 %R=0.565
New Transformer.324505974_325201141 phases=3 windings=2 Xhl=3.840
~ wdg=1 bus=node_441015574.1.2.3 conn=delta Kv=13.8 Kva=112.5 %R=0.565
~ wdg=2 bus=node_418529505.1.2.3.4 conn=wye Kv=0.2200 Kva=112.5 %R=0.565
New Transformer.384085848_384085849 phases=3 windings=2 Xhl=3.840
~ wdg=1 bus=node_424068427.1.2.3 conn=delta Kv=13.8 Kva=112.5 %R=0.565
~ wdg=2 bus=node_418531347.1.2.3.4 conn=wye Kv=0.2200 Kva=112.5 %R=0.565
New Transformer.324824024_325158666 phases=3 windings=2 Xhl=3.770
~ wdg=1 bus=node_441017350.1.2.3 conn=delta Kv=13.8 Kva=75.0 %R=0.670
~ wdg=2 bus=node_418590462.1.2.3.4 conn=wye Kv=0.2200 Kva=75.0 %R=0.670
New Transformer.324824036_325201113 phases=3 windings=2 Xhl=3.770
~ wdg=1 bus=node_431155213.1.2.3 conn=delta Kv=13.8 Kva=75.0 %R=0.670
~ wdg=2 bus=node_418470738.1.2.3.4 conn=wye Kv=0.2200 Kva=75.0 %R=0.670
New Transformer.324824138_325184081 phases=3 windings=2 Xhl=3.770
~ wdg=1 bus=node_437590019.1.2.3 conn=delta Kv=13.8 Kva=75.0 %R=0.670
~ wdg=2 bus=node_418561323.1.2.3.4 conn=wye Kv=0.2200 Kva=75.0 %R=0.670
New Transformer.324824072_325259405 phases=3 windings=2 Xhl=3.770
~ wdg=1 bus=node_431156178.1.2.3 conn=delta Kv=13.8 Kva=75.0 %R=0.670
~ wdg=2 bus=node_420108142.1.2.3.4 conn=wye Kv=0.2200 Kva=75.0 %R=0.670
New Transformer.324824280_325304860 phases=3 windings=2 Xhl=3.770
~ wdg=1 bus=node_440709652.1.2.3 conn=delta Kv=13.8 Kva=75.0 %R=0.670
~ wdg=2 bus=node_420945649.1.2.3.4 conn=wye Kv=0.2200 Kva=75.0 %R=0.670
New Transformer.324824447_325201151 phases=3 windings=2 Xhl=3.770
~ wdg=1 bus=node_441016489.1.2.3 conn=delta Kv=13.8 Kva=75.0 %R=0.670
~ wdg=2 bus=node_467188433.1.2.3.4 conn=wye Kv=0.2200 Kva=75.0 %R=0.670
New Transformer.324824519_325182755 phases=3 windings=2 Xhl=3.770
~ wdg=1 bus=node_424068704.1.2.3 conn=delta Kv=13.8 Kva=75.0 %R=0.670
~ wdg=2 bus=node_418588017.1.2.3.4 conn=wye Kv=0.2200 Kva=75.0 %R=0.670
New Transformer.324824677_325258140 phases=3 windings=2 Xhl=3.770
~ wdg=1 bus=node_428538858.1.2.3 conn=delta Kv=13.8 Kva=75.0 %R=0.670
~ wdg=2 bus=node_418468557.1.2.3.4 conn=wye Kv=0.2200 Kva=75.0 %R=0.670
New Transformer.324824681_325184054 phases=3 windings=2 Xhl=3.770
~ wdg=1 bus=node_431154923.1.2.3 conn=delta Kv=13.8 Kva=75.0 %R=0.670
~ wdg=2 bus=node_418471527.1.2.3.4 conn=wye Kv=0.2200 Kva=75.0 %R=0.670
New Transformer.324824985_325223861 phases=3 windings=2 Xhl=3.770
~ wdg=1 bus=node_424069876.1.2.3 conn=delta Kv=13.8 Kva=75.0 %R=0.670
~ wdg=2 bus=node_417594544.1.2.3.4 conn=wye Kv=0.2200 Kva=75.0 %R=0.670
New Transformer.324824598_428292148 phases=3 windings=2 Xhl=3.770
~ wdg=1 bus=node_437386826.1.2.3 conn=delta Kv=13.8 Kva=75.0 %R=0.670
~ wdg=2 bus=node_417592267.1.2.3.4 conn=wye Kv=0.2200 Kva=75.0 %R=0.670
New Transformer.324825133_325184075 phases=3 windings=2 Xhl=3.770
~ wdg=1 bus=node_441015725.1.2.3 conn=delta Kv=13.8 Kva=75.0 %R=0.670
~ wdg=2 bus=node_418557687.1.2.3.4 conn=wye Kv=0.2200 Kva=75.0 %R=0.670
New Transformer.324825175_325259413 phases=3 windings=2 Xhl=3.770
~ wdg=1 bus=node_428708231.1.2.3 conn=delta Kv=13.8 Kva=75.0 %R=0.670
~ wdg=2 bus=node_418590258.1.2.3.4 conn=wye Kv=0.2200 Kva=75.0 %R=0.670
New Transformer.324825264_325258121 phases=3 windings=2 Xhl=3.770
~ wdg=1 bus=node_437589368.1.2.3 conn=delta Kv=13.8 Kva=75.0 %R=0.670
~ wdg=2 bus=node_467239057.1.2.3.4 conn=wye Kv=0.2200 Kva=75.0 %R=0.670
New Transformer.324824822_1087867862 phases=3 windings=2 Xhl=3.770
~ wdg=1 bus=node_434994130.1.2.3 conn=delta Kv=13.8 Kva=75.0 %R=0.670
~ wdg=2 bus=node_418468209.1.2.3.4 conn=wye Kv=0.2200 Kva=75.0 %R=0.670
New Transformer.324825399_325223832 phases=3 windings=2 Xhl=3.770
~ wdg=1 bus=node_435184678.1.2.3 conn=delta Kv=13.8 Kva=75.0 %R=0.670
~ wdg=2 bus=node_418527882.1.2.3.4 conn=wye Kv=0.2200 Kva=75.0 %R=0.670
New Transformer.324825338_325258128 phases=3 windings=2 Xhl=3.770
~ wdg=1 bus=node_441017784.1.2.3 conn=delta Kv=13.8 Kva=75.0 %R=0.670
~ wdg=2 bus=node_418589289.1.2.3.4 conn=wye Kv=0.2200 Kva=75.0 %R=0.670
New Transformer.324825199_325155668 phases=3 windings=2 Xhl=3.770
~ wdg=1 bus=node_424067269.1.2.3 conn=delta Kv=13.8 Kva=75.0 %R=0.670
~ wdg=2 bus=node_418471755.1.2.3.4 conn=wye Kv=0.2200 Kva=75.0 %R=0.670
New Transformer.324825550_325158695 phases=3 windings=2 Xhl=3.770
~ wdg=1 bus=node_428705043.1.2.3 conn=delta Kv=13.8 Kva=75.0 %R=0.670
~ wdg=2 bus=node_418499583.1.2.3.4 conn=wye Kv=0.2200 Kva=75.0 %R=0.670
New Transformer.324825552_325184041 phases=3 windings=2 Xhl=3.770
~ wdg=1 bus=node_440707486.1.2.3 conn=delta Kv=13.8 Kva=75.0 %R=0.670
~ wdg=2 bus=node_418467852.1.2.3.4 conn=wye Kv=0.2200 Kva=75.0 %R=0.670
New Transformer.324825042_325259330 phases=3 windings=2 Xhl=3.770
~ wdg=1 bus=node_428705642.1.2.3 conn=delta Kv=13.8 Kva=75.0 %R=0.670
~ wdg=2 bus=node_418559580.1.2.3.4 conn=wye Kv=0.2200 Kva=75.0 %R=0.670
New Transformer.324825705_325155701 phases=3 windings=2 Xhl=3.770
~ wdg=1 bus=node_440868435.1.2.3 conn=delta Kv=13.8 Kva=75.0 %R=0.670
~ wdg=2 bus=node_418498287.1.2.3.4 conn=wye Kv=0.2200 Kva=75.0 %R=0.670
New Transformer.324825554_325157995 phases=3 windings=2 Xhl=3.770
~ wdg=1 bus=node_431324088.1.2.3 conn=delta Kv=13.8 Kva=75.0 %R=0.670
~ wdg=2 bus=node_420894268.1.2.3.4 conn=wye Kv=0.2200 Kva=75.0 %R=0.670
New Transformer.324825734_325182714 phases=3 windings=2 Xhl=3.770
~ wdg=1 bus=node_440708332.1.2.3 conn=delta Kv=13.8 Kva=75.0 %R=0.670
~ wdg=2 bus=node_418467849.1.2.3.4 conn=wye Kv=0.2200 Kva=75.0 %R=0.670
New Transformer.324825306_325258085 phases=3 windings=2 Xhl=3.770
~ wdg=1 bus=node_440865491.1.2.3 conn=delta Kv=13.8 Kva=75.0 %R=0.670
~ wdg=2 bus=node_418498050.1.2.3.4 conn=wye Kv=0.2200 Kva=75.0 %R=0.670
New Transformer.324825964_325259385 phases=3 windings=2 Xhl=3.770
~ wdg=1 bus=node_440868615.1.2.3 conn=delta Kv=13.8 Kva=75.0 %R=0.670
~ wdg=2 bus=node_418527678.1.2.3.4 conn=wye Kv=0.2200 Kva=75.0 %R=0.670
New Transformer.324825852_325259400 phases=3 windings=2 Xhl=3.770
~ wdg=1 bus=node_428706682.1.2.3 conn=delta Kv=13.8 Kva=75.0 %R=0.670
~ wdg=2 bus=node_418560093.1.2.3.4 conn=wye Kv=0.2200 Kva=75.0 %R=0.670
New Transformer.324825526_325184108 phases=3 windings=2 Xhl=3.770
~ wdg=1 bus=node_424067154.1.2.3 conn=delta Kv=13.8 Kva=75.0 %R=0.670
~ wdg=2 bus=node_417595696.1.2.3.4 conn=wye Kv=0.2200 Kva=75.0 %R=0.670
New Transformer.324825654_325223867 phases=3 windings=2 Xhl=3.770
~ wdg=1 bus=node_440550763.1.2.3 conn=delta Kv=13.8 Kva=75.0 %R=0.670
~ wdg=2 bus=node_418469037.1.2.3.4 conn=wye Kv=0.2200 Kva=75.0 %R=0.670
New Transformer.324825877_325201090 phases=3 windings=2 Xhl=3.770
~ wdg=1 bus=node_440707151.1.2.3 conn=delta Kv=13.8 Kva=75.0 %R=0.670
~ wdg=2 bus=node_418497894.1.2.3.4 conn=wye Kv=0.2200 Kva=75.0 %R=0.670
New Transformer.324826129_325199406 phases=3 windings=2 Xhl=3.770
~ wdg=1 bus=node_440550733.1.2.3 conn=delta Kv=13.8 Kva=75.0 %R=0.670
~ wdg=2 bus=node_420945412.1.2.3.4 conn=wye Kv=0.2200 Kva=75.0 %R=0.670
New Transformer.324825999_413039934 phases=3 windings=2 Xhl=3.770
~ wdg=1 bus=node_438403086.1.2.3 conn=delta Kv=13.8 Kva=75.0 %R=0.670
~ wdg=2 bus=node_419335151.1.2.3.4 conn=wye Kv=0.2200 Kva=75.0 %R=0.670
New Transformer.324825980_325259435 phases=3 windings=2 Xhl=3.770
~ wdg=1 bus=node_440707017.1.2.3 conn=delta Kv=13.8 Kva=75.0 %R=0.670
~ wdg=2 bus=node_418497675.1.2.3.4 conn=wye Kv=0.2200 Kva=75.0 %R=0.670
New Transformer.324826175_325155732 phases=3 windings=2 Xhl=3.770
~ wdg=1 bus=node_441017755.1.2.3 conn=delta Kv=13.8 Kva=75.0 %R=0.670
~ wdg=2 bus=node_418589274.1.2.3.4 conn=wye Kv=0.2200 Kva=75.0 %R=0.670
New Transformer.324826250_325258097 phases=3 windings=2 Xhl=3.770
~ wdg=1 bus=node_440868848.1.2.3 conn=delta Kv=13.8 Kva=75.0 %R=0.670
~ wdg=2 bus=node_418527702.1.2.3.4 conn=wye Kv=0.2200 Kva=75.0 %R=0.670
New Transformer.324826902_325155715 phases=3 windings=2 Xhl=3.770
~ wdg=1 bus=node_441015745.1.2.3 conn=delta Kv=13.8 Kva=75.0 %R=0.670
~ wdg=2 bus=node_418557699.1.2.3.4 conn=wye Kv=0.2200 Kva=75.0 %R=0.670
New Transformer.324826610_1427209662 phases=3 windings=2 Xhl=3.770
~ wdg=1 bus=node_440867595.1.2.3 conn=delta Kv=13.8 Kva=75.0 %R=0.670
~ wdg=2 bus=node_418470933.1.2.3.4 conn=wye Kv=0.2200 Kva=75.0 %R=0.670
New Transformer.324826745_325155707 phases=3 windings=2 Xhl=3.770
~ wdg=1 bus=node_440868809.1.2.3 conn=delta Kv=13.8 Kva=75.0 %R=0.670
~ wdg=2 bus=node_418529091.1.2.3.4 conn=wye Kv=0.2200 Kva=75.0 %R=0.670
New Transformer.324826766_2544242243 phases=3 windings=2 Xhl=3.770
~ wdg=1 bus=node_428707116.1.2.3 conn=delta Kv=13.8 Kva=75.0 %R=0.670
~ wdg=2 bus=node_418560087.1.2.3.4 conn=wye Kv=0.2200 Kva=75.0 %R=0.670
New Transformer.324827219_325182682 phases=3 windings=2 Xhl=3.770
~ wdg=1 bus=node_441016549.1.2.3 conn=delta Kv=13.8 Kva=75.0 %R=0.670
~ wdg=2 bus=node_418499262.1.2.3.4 conn=wye Kv=0.2200 Kva=75.0 %R=0.670
New Transformer.324827033_325182764 phases=3 windings=2 Xhl=3.770
~ wdg=1 bus=node_428880665.1.2.3 conn=delta Kv=13.8 Kva=75.0 %R=0.670
~ wdg=2 bus=node_2541314156.1.2.3.4 conn=wye Kv=0.2200 Kva=75.0 %R=0.670
New Transformer.324827332_325158615 phases=3 windings=2 Xhl=3.770
~ wdg=1 bus=node_431155583.1.2.3 conn=delta Kv=13.8 Kva=75.0 %R=0.670
~ wdg=2 bus=node_420896861.1.2.3.4 conn=wye Kv=0.2200 Kva=75.0 %R=0.670
New Transformer.324827178_325258124 phases=3 windings=2 Xhl=3.770
~ wdg=1 bus=node_424068754.1.2.3 conn=delta Kv=13.8 Kva=75.0 %R=0.670
~ wdg=2 bus=node_418560321.1.2.3.4 conn=wye Kv=0.2200 Kva=75.0 %R=0.670
New Transformer.324827852_625708799 phases=3 windings=2 Xhl=3.770
~ wdg=1 bus=node_430947188.1.2.3 conn=delta Kv=13.8 Kva=75.0 %R=0.670
~ wdg=2 bus=node_418559727.1.2.3.4 conn=wye Kv=0.2200 Kva=75.0 %R=0.670
New Transformer.324827865_325155681 phases=3 windings=2 Xhl=3.770
~ wdg=1 bus=node_440707497.1.2.3 conn=delta Kv=13.8 Kva=75.0 %R=0.670
~ wdg=2 bus=node_418468263.1.2.3.4 conn=wye Kv=0.2200 Kva=75.0 %R=0.670
New Transformer.324827289_325258138 phases=3 windings=2 Xhl=3.770
~ wdg=1 bus=node_441182790.1.2.3 conn=delta Kv=13.8 Kva=75.0 %R=0.670
~ wdg=2 bus=node_417595507.1.2.3.4 conn=wye Kv=0.2200 Kva=75.0 %R=0.670
New Transformer.324827251_675519198 phases=3 windings=2 Xhl=3.770
~ wdg=1 bus=node_440868339.1.2.3 conn=delta Kv=13.8 Kva=75.0 %R=0.670
~ wdg=2 bus=node_418501713.1.2.3.4 conn=wye Kv=0.2200 Kva=75.0 %R=0.670
New Transformer.324827882_325259329 phases=3 windings=2 Xhl=3.770
~ wdg=1 bus=node_440865011.1.2.3 conn=delta Kv=13.8 Kva=75.0 %R=0.670
~ wdg=2 bus=node_418589229.1.2.3.4 conn=wye Kv=0.2200 Kva=75.0 %R=0.670
New Transformer.324827754_325155735 phases=3 windings=2 Xhl=3.770
~ wdg=1 bus=node_437590302.1.2.3 conn=delta Kv=13.8 Kva=75.0 %R=0.670
~ wdg=2 bus=node_417592501.1.2.3.4 conn=wye Kv=0.2200 Kva=75.0 %R=0.670
New Transformer.324828086_325259376 phases=3 windings=2 Xhl=3.770
~ wdg=1 bus=node_437588909.1.2.3 conn=delta Kv=13.8 Kva=75.0 %R=0.670
~ wdg=2 bus=node_418498023.1.2.3.4 conn=wye Kv=0.2200 Kva=75.0 %R=0.670
New Transformer.324828035_325182729 phases=3 windings=2 Xhl=3.770
~ wdg=1 bus=node_440869174.1.2.3 conn=delta Kv=13.8 Kva=75.0 %R=0.670
~ wdg=2 bus=node_418498380.1.2.3.4 conn=wye Kv=0.2200 Kva=75.0 %R=0.670
New Transformer.324828093_325155703 phases=3 windings=2 Xhl=3.770
~ wdg=1 bus=node_440868270.1.2.3 conn=delta Kv=13.8 Kva=75.0 %R=0.670
~ wdg=2 bus=node_418499694.1.2.3.4 conn=wye Kv=0.2200 Kva=75.0 %R=0.670
New Transformer.324827939_325259401 phases=3 windings=2 Xhl=3.770
~ wdg=1 bus=node_441016475.1.2.3 conn=delta Kv=13.8 Kva=75.0 %R=0.670
~ wdg=2 bus=node_418557909.1.2.3.4 conn=wye Kv=0.2200 Kva=75.0 %R=0.670
New Transformer.987031810_987031809 phases=3 windings=2 Xhl=3.770
~ wdg=1 bus=node_1248944390.1.2.3 conn=delta Kv=13.8 Kva=75.0 %R=0.670
~ wdg=2 bus=node_419475735.1.2.3.4 conn=wye Kv=0.2200 Kva=75.0 %R=0.670
New Transformer.2153355155_2153355154 phases=3 windings=2 Xhl=3.770
~ wdg=1 bus=node_428539368.1.2.3 conn=delta Kv=13.8 Kva=75.0 %R=0.670
~ wdg=2 bus=node_447707771.1.2.3.4 conn=wye Kv=0.2200 Kva=75.0 %R=0.670
New Transformer.324343062_325223823 phases=3 windings=2 Xhl=3.770
~ wdg=1 bus=node_424068012.1.2.3 conn=delta Kv=13.8 Kva=75.0 %R=0.670
~ wdg=2 bus=node_418499646.1.2.3.4 conn=wye Kv=0.2200 Kva=75.0 %R=0.670
New Transformer.324343002_325223834 phases=3 windings=2 Xhl=3.770
~ wdg=1 bus=node_428706421.1.2.3 conn=delta Kv=13.8 Kva=75.0 %R=0.670
~ wdg=2 bus=node_418531329.1.2.3.4 conn=wye Kv=0.2200 Kva=75.0 %R=0.670
New Transformer.324343141_325155719 phases=3 windings=2 Xhl=3.770
~ wdg=1 bus=node_438401067.1.2.3 conn=delta Kv=13.8 Kva=75.0 %R=0.670
~ wdg=2 bus=node_418560084.1.2.3.4 conn=wye Kv=0.2200 Kva=75.0 %R=0.670
New Transformer.324919678_325856024 phases=3 windings=2 Xhl=3.770
~ wdg=1 bus=node_424114899.1.2.3 conn=delta Kv=13.8 Kva=75.0 %R=0.670
~ wdg=2 bus=node_420588905.1.2.3.4 conn=wye Kv=0.2200 Kva=75.0 %R=0.670
New Transformer.324343174_325184065 phases=3 windings=2 Xhl=3.770
~ wdg=1 bus=node_434994925.1.2.3 conn=delta Kv=13.8 Kva=75.0 %R=0.670
~ wdg=2 bus=node_418498278.1.2.3.4 conn=wye Kv=0.2200 Kva=75.0 %R=0.670
New Transformer.324343171_325184099 phases=3 windings=2 Xhl=3.770
~ wdg=1 bus=node_441018559.1.2.3 conn=delta Kv=13.8 Kva=75.0 %R=0.670
~ wdg=2 bus=node_417592303.1.2.3.4 conn=wye Kv=0.2200 Kva=75.0 %R=0.670
New Transformer.324343235_2591245823 phases=3 windings=2 Xhl=4.960
~ wdg=1 bus=node_434995005.1.2.3 conn=delta Kv=13.8 Kva=75.0 %R=0.305
~ wdg=2 bus=node_418529475.1.2.3.4 conn=wye Kv=0.2200 Kva=75.0 %R=0.305
New Transformer.324343218_325223782 phases=3 windings=2 Xhl=3.770
~ wdg=1 bus=node_428541101.1.2.3 conn=delta Kv=13.8 Kva=75.0 %R=0.670
~ wdg=2 bus=node_419619120.1.2.3.4 conn=wye Kv=0.2200 Kva=75.0 %R=0.670
New Transformer.324343513_325155955 phases=3 windings=2 Xhl=3.770
~ wdg=1 bus=node_438402152.1.2.3 conn=delta Kv=13.8 Kva=75.0 %R=0.670
~ wdg=2 bus=node_418619445.1.2.3.4 conn=wye Kv=0.2200 Kva=75.0 %R=0.670
New Transformer.324343352_826135542 phases=3 windings=2 Xhl=3.770
~ wdg=1 bus=node_440707577.1.2.3 conn=delta Kv=13.8 Kva=75.0 %R=0.670
~ wdg=2 bus=node_418469745.1.2.3.4 conn=wye Kv=0.2200 Kva=75.0 %R=0.670
New Transformer.324343544_325304859 phases=3 windings=2 Xhl=3.770
~ wdg=1 bus=node_440709322.1.2.3 conn=delta Kv=13.8 Kva=75.0 %R=0.670
~ wdg=2 bus=node_417592939.1.2.3.4 conn=wye Kv=0.2200 Kva=75.0 %R=0.670
New Transformer.324343470_325201121 phases=3 windings=2 Xhl=3.770
~ wdg=1 bus=node_440709992.1.2.3 conn=delta Kv=13.8 Kva=75.0 %R=0.670
~ wdg=2 bus=node_418498011.1.2.3.4 conn=wye Kv=0.2200 Kva=75.0 %R=0.670
New Transformer.324343457_691535818 phases=3 windings=2 Xhl=3.770
~ wdg=1 bus=node_437590253.1.2.3 conn=delta Kv=13.8 Kva=75.0 %R=0.670
~ wdg=2 bus=node_417592612.1.2.3.4 conn=wye Kv=0.2200 Kva=75.0 %R=0.670
New Transformer.324343430_325158633 phases=3 windings=2 Xhl=3.770
~ wdg=1 bus=node_428705547.1.2.3 conn=delta Kv=13.8 Kva=75.0 %R=0.670
~ wdg=2 bus=node_418498890.1.2.3.4 conn=wye Kv=0.2200 Kva=75.0 %R=0.670
New Transformer.324343839_325258129 phases=3 windings=2 Xhl=3.770
~ wdg=1 bus=node_441017865.1.2.3 conn=delta Kv=13.8 Kva=75.0 %R=0.670
~ wdg=2 bus=node_418588566.1.2.3.4 conn=wye Kv=0.2200 Kva=75.0 %R=0.670
New Transformer.324343974_907150440 phases=3 windings=2 Xhl=3.770
~ wdg=1 bus=node_440867141.1.2.3 conn=delta Kv=13.8 Kva=75.0 %R=0.670
~ wdg=2 bus=node_418498356.1.2.3.4 conn=wye Kv=0.2200 Kva=75.0 %R=0.670
New Transformer.324343989_325182761 phases=3 windings=2 Xhl=3.770
~ wdg=1 bus=node_437590168.1.2.3 conn=delta Kv=13.8 Kva=75.0 %R=0.670
~ wdg=2 bus=node_418590615.1.2.3.4 conn=wye Kv=0.2200 Kva=75.0 %R=0.670
New Transformer.324344088_325259411 phases=3 windings=2 Xhl=3.770
~ wdg=1 bus=node_424069323.1.2.3 conn=delta Kv=13.8 Kva=75.0 %R=0.670
~ wdg=2 bus=node_418589577.1.2.3.4 conn=wye Kv=0.2200 Kva=75.0 %R=0.670
New Transformer.324344309_325184110 phases=3 windings=2 Xhl=3.770
~ wdg=1 bus=node_440551238.1.2.3 conn=delta Kv=13.8 Kva=75.0 %R=0.670
~ wdg=2 bus=node_417595210.1.2.3.4 conn=wye Kv=0.2200 Kva=75.0 %R=0.670
New Transformer.324344028_325259412 phases=3 windings=2 Xhl=3.770
~ wdg=1 bus=node_441017869.1.2.3 conn=delta Kv=13.8 Kva=75.0 %R=0.670
~ wdg=2 bus=node_418589364.1.2.3.4 conn=wye Kv=0.2200 Kva=75.0 %R=0.670
New Transformer.324344029_325158601 phases=3 windings=2 Xhl=3.770
~ wdg=1 bus=node_440551062.1.2.3 conn=delta Kv=13.8 Kva=75.0 %R=0.670
~ wdg=2 bus=node_418497612.1.2.3.4 conn=wye Kv=0.2200 Kva=75.0 %R=0.670
New Transformer.324344120_325184121 phases=3 windings=2 Xhl=3.770
~ wdg=1 bus=node_440706512.1.2.3 conn=delta Kv=13.8 Kva=75.0 %R=0.670
~ wdg=2 bus=node_418470714.1.2.3.4 conn=wye Kv=0.2200 Kva=75.0 %R=0.670
New Transformer.324344138_325184074 phases=3 windings=2 Xhl=3.770
~ wdg=1 bus=node_424068377.1.2.3 conn=delta Kv=13.8 Kva=75.0 %R=0.670
~ wdg=2 bus=node_418529112.1.2.3.4 conn=wye Kv=0.2200 Kva=75.0 %R=0.670
New Transformer.324344352_325201148 phases=3 windings=2 Xhl=3.770
~ wdg=1 bus=node_441015940.1.2.3 conn=delta Kv=13.8 Kva=75.0 %R=0.670
~ wdg=2 bus=node_418557717.1.2.3.4 conn=wye Kv=0.2200 Kva=75.0 %R=0.670
New Transformer.2229535033_2229535032 phases=3 windings=2 Xhl=3.770
~ wdg=1 bus=node_2556475871.1.2.3 conn=delta Kv=13.8 Kva=75.0 %R=0.670
~ wdg=2 bus=node_2556475934.1.2.3.4 conn=wye Kv=0.2200 Kva=75.0 %R=0.670
New Transformer.324970544_325259433 phases=3 windings=2 Xhl=3.770
~ wdg=1 bus=node_428539233.1.2.3 conn=delta Kv=13.8 Kva=75.0 %R=0.670
~ wdg=2 bus=node_418470081.1.2.3.4 conn=wye Kv=0.2200 Kva=75.0 %R=0.670
New Transformer.324970560_774611836 phases=3 windings=2 Xhl=3.770
~ wdg=1 bus=node_440709497.1.2.3 conn=delta Kv=13.8 Kva=75.0 %R=0.670
~ wdg=2 bus=node_470985657.1.2.3.4 conn=wye Kv=0.2200 Kva=75.0 %R=0.670
New Transformer.324970615_325158671 phases=3 windings=2 Xhl=3.770
~ wdg=1 bus=node_441018095.1.2.3 conn=delta Kv=13.8 Kva=75.0 %R=0.670
~ wdg=2 bus=node_418589772.1.2.3.4 conn=wye Kv=0.2200 Kva=75.0 %R=0.670
New Transformer.324970582_325158645 phases=3 windings=2 Xhl=3.770
~ wdg=1 bus=node_440869219.1.2.3 conn=delta Kv=13.8 Kva=75.0 %R=0.670
~ wdg=2 bus=node_418527711.1.2.3.4 conn=wye Kv=0.2200 Kva=75.0 %R=0.670
New Transformer.324970726_1136888035 phases=3 windings=2 Xhl=3.770
~ wdg=1 bus=node_424067009.1.2.3 conn=delta Kv=13.8 Kva=75.0 %R=0.670
~ wdg=2 bus=node_418470699.1.2.3.4 conn=wye Kv=0.2200 Kva=75.0 %R=0.670
New Transformer.324970862_325155747 phases=3 windings=2 Xhl=3.770
~ wdg=1 bus=node_434994269.1.2.3 conn=delta Kv=13.8 Kva=75.0 %R=0.670
~ wdg=2 bus=node_418467804.1.2.3.4 conn=wye Kv=0.2200 Kva=75.0 %R=0.670
New Transformer.324972689_325158660 phases=3 windings=2 Xhl=3.770
~ wdg=1 bus=node_424068718.1.2.3 conn=delta Kv=13.8 Kva=75.0 %R=0.670
~ wdg=2 bus=node_418560294.1.2.3.4 conn=wye Kv=0.2200 Kva=75.0 %R=0.670
New Transformer.324972819_325201156 phases=3 windings=2 Xhl=3.770
~ wdg=1 bus=node_428708041.1.2.3 conn=delta Kv=13.8 Kva=75.0 %R=0.670
~ wdg=2 bus=node_418560792.1.2.3.4 conn=wye Kv=0.2200 Kva=75.0 %R=0.670
New Transformer.324972822_325201157 phases=3 windings=2 Xhl=3.770
~ wdg=1 bus=node_438401227.1.2.3 conn=delta Kv=13.8 Kva=75.0 %R=0.670
~ wdg=2 bus=node_447616704.1.2.3.4 conn=wye Kv=0.2200 Kva=75.0 %R=0.670
New Transformer.324972452_325223784 phases=3 windings=2 Xhl=3.770
~ wdg=1 bus=node_428539313.1.2.3 conn=delta Kv=13.8 Kva=75.0 %R=0.670
~ wdg=2 bus=node_418499100.1.2.3.4 conn=wye Kv=0.2200 Kva=75.0 %R=0.670
New Transformer.324972411_325201171 phases=3 windings=2 Xhl=3.770
~ wdg=1 bus=node_441018070.1.2.3 conn=delta Kv=13.8 Kva=75.0 %R=0.670
~ wdg=2 bus=node_417592384.1.2.3.4 conn=wye Kv=0.2200 Kva=75.0 %R=0.670
New Transformer.324972437_325258145 phases=3 windings=2 Xhl=3.770
~ wdg=1 bus=node_440709077.1.2.3 conn=delta Kv=13.8 Kva=75.0 %R=0.670
~ wdg=2 bus=node_418470654.1.2.3.4 conn=wye Kv=0.2200 Kva=75.0 %R=0.670
New Transformer.324972305_2656397245 phases=3 windings=2 Xhl=3.770
~ wdg=1 bus=node_428540937.1.2.3 conn=delta Kv=13.8 Kva=75.0 %R=0.670
~ wdg=2 bus=node_418497921.1.2.3.4 conn=wye Kv=0.2200 Kva=75.0 %R=0.670
New Transformer.324972639_325224995 phases=3 windings=2 Xhl=3.770
~ wdg=1 bus=node_440708987.1.2.3 conn=delta Kv=13.8 Kva=75.0 %R=0.670
~ wdg=2 bus=node_417595204.1.2.3.4 conn=wye Kv=0.2200 Kva=75.0 %R=0.670
New Transformer.324972538_1061674361 phases=3 windings=2 Xhl=3.770
~ wdg=1 bus=node_2216708804.1.2.3 conn=delta Kv=13.8 Kva=75.0 %R=0.670
~ wdg=2 bus=node_2216708825.1.2.3.4 conn=wye Kv=0.2200 Kva=75.0 %R=0.670
New Transformer.324972794_325223864 phases=3 windings=2 Xhl=3.770
~ wdg=1 bus=node_440550318.1.2.3 conn=delta Kv=13.8 Kva=75.0 %R=0.670
~ wdg=2 bus=node_418467954.1.2.3.4 conn=wye Kv=0.2200 Kva=75.0 %R=0.670
New Transformer.324973666_325182756 phases=3 windings=2 Xhl=3.770
~ wdg=1 bus=node_424068812.1.2.3 conn=delta Kv=13.8 Kva=75.0 %R=0.670
~ wdg=2 bus=node_418588248.1.2.3.4 conn=wye Kv=0.2200 Kva=75.0 %R=0.670
New Transformer.324971565_325158653 phases=3 windings=2 Xhl=3.770
~ wdg=1 bus=node_441016195.1.2.3 conn=delta Kv=13.8 Kva=75.0 %R=0.670
~ wdg=2 bus=node_418560231.1.2.3.4 conn=wye Kv=0.2200 Kva=75.0 %R=0.670
New Transformer.324971181_325182735 phases=3 windings=2 Xhl=3.770
~ wdg=1 bus=node_440868794.1.2.3 conn=delta Kv=13.8 Kva=75.0 %R=0.670
~ wdg=2 bus=node_418529289.1.2.3.4 conn=wye Kv=0.2200 Kva=75.0 %R=0.670
New Transformer.324971545_325182732 phases=3 windings=2 Xhl=3.770
~ wdg=1 bus=node_440868285.1.2.3 conn=delta Kv=13.8 Kva=75.0 %R=0.670
~ wdg=2 bus=node_418528470.1.2.3.4 conn=wye Kv=0.2200 Kva=75.0 %R=0.670
New Transformer.324971493_325184051 phases=3 windings=2 Xhl=3.770
~ wdg=1 bus=node_440867814.1.2.3 conn=delta Kv=13.8 Kva=75.0 %R=0.670
~ wdg=2 bus=node_418470951.1.2.3.4 conn=wye Kv=0.2200 Kva=75.0 %R=0.670
New Transformer.324972040_325184095 phases=3 windings=2 Xhl=3.770
~ wdg=1 bus=node_437590453.1.2.3 conn=delta Kv=13.8 Kva=75.0 %R=0.670
~ wdg=2 bus=node_417592510.1.2.3.4 conn=wye Kv=0.2200 Kva=75.0 %R=0.670
New Transformer.324972047_325201146 phases=3 windings=2 Xhl=3.770
~ wdg=1 bus=node_441016255.1.2.3 conn=delta Kv=13.8 Kva=75.0 %R=0.670
~ wdg=2 bus=node_418531662.1.2.3.4 conn=wye Kv=0.2200 Kva=75.0 %R=0.670
New Transformer.324971907_325223826 phases=3 windings=2 Xhl=3.770
~ wdg=1 bus=node_440867121.1.2.3 conn=delta Kv=13.8 Kva=75.0 %R=0.670
~ wdg=2 bus=node_418498194.1.2.3.4 conn=wye Kv=0.2200 Kva=75.0 %R=0.670
New Transformer.324971795_325184093 phases=3 windings=2 Xhl=3.770
~ wdg=1 bus=node_428708466.1.2.3 conn=delta Kv=13.8 Kva=75.0 %R=0.670
~ wdg=2 bus=node_417592831.1.2.3.4 conn=wye Kv=0.2200 Kva=75.0 %R=0.670
New Transformer.324971432_325258118 phases=3 windings=2 Xhl=3.770
~ wdg=1 bus=node_424068579.1.2.3 conn=delta Kv=13.8 Kva=75.0 %R=0.670
~ wdg=2 bus=node_418557906.1.2.3.4 conn=wye Kv=0.2200 Kva=75.0 %R=0.670
New Transformer.324971442_325201178 phases=3 windings=2 Xhl=3.770
~ wdg=1 bus=node_424069980.1.2.3 conn=delta Kv=13.8 Kva=75.0 %R=0.670
~ wdg=2 bus=node_417592888.1.2.3.4 conn=wye Kv=0.2200 Kva=75.0 %R=0.670
New Transformer.324971771_325155757 phases=3 windings=2 Xhl=3.770
~ wdg=1 bus=node_424067194.1.2.3 conn=delta Kv=13.8 Kva=75.0 %R=0.670
~ wdg=2 bus=node_418469589.1.2.3.4 conn=wye Kv=0.2200 Kva=75.0 %R=0.670
New Transformer.324972198_700742154 phases=3 windings=2 Xhl=3.770
~ wdg=1 bus=node_437588698.1.2.3 conn=delta Kv=13.8 Kva=75.0 %R=0.670
~ wdg=2 bus=node_418471515.1.2.3.4 conn=wye Kv=0.2200 Kva=75.0 %R=0.670
New Transformer.324971594_325259356 phases=3 windings=2 Xhl=3.770
~ wdg=1 bus=node_428539018.1.2.3 conn=delta Kv=13.8 Kva=75.0 %R=0.670
~ wdg=2 bus=node_417592249.1.2.3.4 conn=wye Kv=0.2200 Kva=75.0 %R=0.670
New Transformer.324971207_325184115 phases=3 windings=2 Xhl=3.770
~ wdg=1 bus=node_440707732.1.2.3 conn=delta Kv=13.8 Kva=75.0 %R=0.670
~ wdg=2 bus=node_418470018.1.2.3.4 conn=wye Kv=0.2200 Kva=75.0 %R=0.670
New Transformer.324972064_325258130 phases=3 windings=2 Xhl=3.770
~ wdg=1 bus=node_437590212.1.2.3 conn=delta Kv=13.8 Kva=75.0 %R=0.670
~ wdg=2 bus=node_418590405.1.2.3.4 conn=wye Kv=0.2200 Kva=75.0 %R=0.670
New Transformer.324972070_1500559770 phases=3 windings=2 Xhl=3.770
~ wdg=1 bus=node_428540442.1.2.3 conn=delta Kv=13.8 Kva=75.0 %R=0.670
~ wdg=2 bus=node_418497918.1.2.3.4 conn=wye Kv=0.2200 Kva=75.0 %R=0.670
New Transformer.324971225_325223870 phases=3 windings=2 Xhl=3.770
~ wdg=1 bus=node_440706946.1.2.3 conn=delta Kv=13.8 Kva=75.0 %R=0.670
~ wdg=2 bus=node_418497855.1.2.3.4 conn=wye Kv=0.2200 Kva=75.0 %R=0.670
New Transformer.324971234_325182200 phases=3 windings=2 Xhl=3.770
~ wdg=1 bus=node_428706151.1.2.3 conn=delta Kv=13.8 Kva=75.0 %R=0.670
~ wdg=2 bus=node_418499259.1.2.3.4 conn=wye Kv=0.2200 Kva=75.0 %R=0.670
New Transformer.324972177_325201134 phases=3 windings=2 Xhl=3.770
~ wdg=1 bus=node_440869149.1.2.3 conn=delta Kv=13.8 Kva=75.0 %R=0.670
~ wdg=2 bus=node_418529277.1.2.3.4 conn=wye Kv=0.2200 Kva=75.0 %R=0.670
New Transformer.324972232_325158632 phases=3 windings=2 Xhl=3.770
~ wdg=1 bus=node_428705467.1.2.3 conn=delta Kv=13.8 Kva=75.0 %R=0.670
~ wdg=2 bus=node_418498185.1.2.3.4 conn=wye Kv=0.2200 Kva=75.0 %R=0.670
New Transformer.324972234_325182689 phases=3 windings=2 Xhl=3.770
~ wdg=1 bus=node_441018794.1.2.3 conn=delta Kv=13.8 Kva=75.0 %R=0.670
~ wdg=2 bus=node_418468164.1.2.3.4 conn=wye Kv=0.2200 Kva=75.0 %R=0.670
New Transformer.324661425_325158617 phases=3 windings=2 Xhl=3.770
~ wdg=1 bus=node_440706357.1.2.3 conn=delta Kv=13.8 Kva=75.0 %R=0.670
~ wdg=2 bus=node_418467879.1.2.3.4 conn=wye Kv=0.2200 Kva=75.0 %R=0.670
New Transformer.324661484_325184105 phases=3 windings=2 Xhl=3.770
~ wdg=1 bus=node_440550377.1.2.3 conn=delta Kv=13.8 Kva=75.0 %R=0.670
~ wdg=2 bus=node_417593017.1.2.3.4 conn=wye Kv=0.2200 Kva=75.0 %R=0.670
New Transformer.324660926_325223827 phases=3 windings=2 Xhl=3.770
~ wdg=1 bus=node_440868180.1.2.3 conn=delta Kv=13.8 Kva=75.0 %R=0.670
~ wdg=2 bus=node_418498200.1.2.3.4 conn=wye Kv=0.2200 Kva=75.0 %R=0.670
New Transformer.324973390_325155683 phases=3 windings=2 Xhl=3.770
~ wdg=1 bus=node_440707532.1.2.3 conn=delta Kv=13.8 Kva=75.0 %R=0.670
~ wdg=2 bus=node_418467900.1.2.3.4 conn=wye Kv=0.2200 Kva=75.0 %R=0.670
New Transformer.324972897_2656175070 phases=3 windings=2 Xhl=3.770
~ wdg=1 bus=node_435184322.1.2.3 conn=delta Kv=13.8 Kva=75.0 %R=0.670
~ wdg=2 bus=node_418529304.1.2.3.4 conn=wye Kv=0.2200 Kva=75.0 %R=0.670
New Transformer.324660778_325201097 phases=3 windings=2 Xhl=3.770
~ wdg=1 bus=node_431323898.1.2.3 conn=delta Kv=13.8 Kva=75.0 %R=0.670
~ wdg=2 bus=node_417592795.1.2.3.4 conn=wye Kv=0.2200 Kva=75.0 %R=0.670
New Transformer.324660805_325258102 phases=3 windings=2 Xhl=3.770
~ wdg=1 bus=node_435184412.1.2.3 conn=delta Kv=13.8 Kva=75.0 %R=0.670
...